Program Version,EnergyPlus, Version 25.1.0-68a4a7c774, YMD=2025.08.17 23:02,
   ** Severe  ** Output:PreprocessorMessage="EPMacro" has the following Severe conditions:
   **   ~~~   ** at approximately input line number=131: column=11
   **   ~~~   ** cannot find/read include file
   **   ~~~   ** symbol="//cadfemhost/work/ansys01/MLu/lahof/Building simulation/energyplus_pr
   **   ~~~   ** refer to <file>.epmdet for details.
   ** Severe  ** Output:PreprocessorMessage="EPMacro" has the following Severe conditions:
   **   ~~~   ** at approximately input line number=132: column=3
   **   ~~~   ** unrecognizible macro command
   **   ~~~   ** symbol=set
   **   ~~~   ** refer to <file>.epmdet for details.
   ** Severe  ** Output:PreprocessorMessage="EPMacro" has the following Severe conditions:
   **   ~~~   ** at approximately input line number=133: column=3
   **   ~~~   ** unrecognizible macro command
   **   ~~~   ** symbol=set
   **   ~~~   ** refer to <file>.epmdet for details.
   ** Severe  ** Output:PreprocessorMessage="EPMacro" has the following Severe conditions:
   **   ~~~   ** at approximately input line number=134: column=3
   **   ~~~   ** unrecognizible macro command
   **   ~~~   ** symbol=set
   **   ~~~   ** refer to <file>.epmdet for details.
   ** Severe  ** Output:PreprocessorMessage="EPMacro" has the following Severe conditions:
   **   ~~~   ** at approximately input line number=135: column=3
   **   ~~~   ** unrecognizible macro command
   **   ~~~   ** symbol=set
   **   ~~~   ** refer to <file>.epmdet for details.
   ** Severe  ** Output:PreprocessorMessage="EPMacro" has the following Severe conditions:
   **   ~~~   ** at approximately input line number=136: column=3
   **   ~~~   ** unrecognizible macro command
   **   ~~~   ** symbol=set
   **   ~~~   ** refer to <file>.epmdet for details.
   ** Severe  ** Output:PreprocessorMessage="EPMacro" has the following Severe conditions:
   **   ~~~   ** at approximately input line number=137: column=3
   **   ~~~   ** unrecognizible macro command
   **   ~~~   ** symbol=set
   **   ~~~   ** refer to <file>.epmdet for details.
   ** Warning ** GetHTSurfaceData: Surfaces with interface to Ground found but no "Ground Temperatures" were input.
   **   ~~~   ** Found first in surface=KINDERWAGENRAUM_BODEN
   **   ~~~   ** Defaults, constant throughout the year of (18.0) will be used.
   ** Warning ** CheckUsedConstructions: There are 28 nominally unused constructions in input.
   **   ~~~   ** For explicit details on each unused construction, use Output:Diagnostics,DisplayExtraWarnings;
   ************* Testing Individual Branch Integrity
   ************* All Branches passed integrity testing
   ************* Testing Individual Supply Air Path Integrity
   ************* All Supply Air Paths passed integrity testing
   ************* Testing Individual Return Air Path Integrity
   ************* All Return Air Paths passed integrity testing
   ************* No node connection errors were found.
   ************* Beginning Simulation
   ************* Simulation Error Summary *************
   ************* There are 10 unused schedules in input.
   ************* Use Output:Diagnostics,DisplayUnusedSchedules; to see them.
   *************
   ************* ===== Final Error Summary =====
   ************* The following error categories occurred.  Consider correcting or noting.
   ************* Nominally Unused Constructions
   ************* ..The nominally unused constructions warning is provided to alert you to potential conditions that can cause
   ************* ..extra time during simulation. Each construction is calculated by the algorithm indicated in the HeatBalanceAlgorithm
   ************* ..object. You may remove the constructions indicated (when you use the DisplayExtraWarnings option).
   *************
   ************* EnergyPlus Warmup Error Summary. During Warmup: 0 Warning; 0 Severe Errors.
   ************* EnergyPlus Sizing Error Summary. During Sizing: 0 Warning; 0 Severe Errors.
   ************* EnergyPlus Completed Successfully-- 2 Warning; 7 Severe Errors; Elapsed Time=00hr 00min  2.27sec
