Program Version,EnergyPlus, Version 25.1.0-68a4a7c774, YMD=2025.08.12 15:35,
Var Type (reported time step),Var Report Type,Variable Name [Units]
Zone,Meter,Carbon Equivalent:Facility [kg]
Zone,Meter,CarbonEquivalentEmissions:Carbon Equivalent [kg]
